
OS:Version,
  {5cb7a250-ca63-4837-86d9-b1227fe2e54b}, !- Handle
  3.0.0;                                  !- Version Identifier

OS:Site,
  {f79f27df-fad4-4f6e-96e0-0d37ebeef664}, !- Handle
  Site 1,                                 !- Name
  ,                                       !- Latitude {deg}
  ,                                       !- Longitude {deg}
  ,                                       !- Time Zone {hr}
  ,                                       !- Elevation {m}
  ;                                       !- Terrain

OS:YearDescription,
  {918c7627-a3f9-48e4-bea8-74dfd51bd95d}; !- Handle

OS:ClimateZones,
  {22c1f353-b23d-4f19-ad4d-e4d85977566b}, !- Handle
  ASHRAE,                                 !- Climate Zone Institution Name 1
  ANSI/ASHRAE Standard 169,               !- Climate Zone Document Name 1
  2006,                                   !- Climate Zone Document Year 1
  ,                                       !- Climate Zone Value 1
  CEC,                                    !- Climate Zone Institution Name 2
  California Climate Zone Descriptions,   !- Climate Zone Document Name 2
  1995,                                   !- Climate Zone Document Year 2
  ;                                       !- Climate Zone Value 2

OS:Building,
  {52507ee0-b33c-46b2-9730-10f5b5e066c7}, !- Handle
  Building 1,                             !- Name
  ,                                       !- Building Sector Type
  ,                                       !- North Axis {deg}
  ,                                       !- Nominal Floor to Floor Height {m}
  ,                                       !- Space Type Name
  ,                                       !- Default Construction Set Name
  ;                                       !- Default Schedule Set Name

OS:Facility,
  {a2d4182c-1db0-422f-ae1c-ec0ee2fc1b3e}; !- Handle

OS:SimulationControl,
  {83cd7601-cbf9-4491-a043-65d18a8e1240}; !- Handle

OS:Sizing:Parameters,
  {40cea865-5463-459a-8fac-b417037ed0af}, !- Handle
  1.25,                                   !- Heating Sizing Factor
  1.15;                                   !- Cooling Sizing Factor

OS:Timestep,
  {299f2dc6-985a-4286-92e0-74d84b1a9a08}, !- Handle
  4;                                      !- Number of Timesteps per Hour

OS:ShadowCalculation,
  {bf1488ab-2035-4b06-8b07-3498cbe74ec1}, !- Handle
  PolygonClipping,                        !- Shading Calculation Method
  ,                                       !- Shading Calculation Update Frequency Method
  20,                                     !- Shading Calculation Update Frequency
  15000,                                  !- Maximum Figures in Shadow Overlap Calculations
  ,                                       !- Polygon Clipping Algorithm
  512,                                    !- Pixel Counting Resolution
  ,                                       !- Sky Diffuse Modeling Algorithm
  No,                                     !- Output External Shading Calculation Results
  No,                                     !- Disable Self-Shading Within Shading Zone Groups
  No;                                     !- Disable Self-Shading From Shading Zone Groups to Other Zones

OS:HeatBalanceAlgorithm,
  {f31f5de0-2b18-47cf-b3df-835b30dcce5b}, !- Handle
  ConductionTransferFunction,             !- Algorithm
  200;                                    !- Surface Temperature Upper Limit {C}

OS:RunPeriod,
  {537ea014-0697-467c-b2c0-71f4af528d1f}, !- Handle
  Run Period 1,                           !- Name
  1,                                      !- Begin Month
  1,                                      !- Begin Day of Month
  12,                                     !- End Month
  31,                                     !- End Day of Month
  ,                                       !- Use Weather File Holidays and Special Days
  ,                                       !- Use Weather File Daylight Saving Period
  ,                                       !- Apply Weekend Holiday Rule
  ,                                       !- Use Weather File Rain Indicators
  ,                                       !- Use Weather File Snow Indicators
  ;                                       !- Number of Times Runperiod to be Repeated

OS:LifeCycleCost:Parameters,
  {32e80817-2797-4c5e-91e8-7dda55d6753d}, !- Handle
  ,                                       !- Analysis Type
  ,                                       !- Discounting Convention
  ,                                       !- Inflation Approach
  ,                                       !- Real Discount Rate
  ,                                       !- Nominal Discount Rate
  ,                                       !- Inflation
  ,                                       !- Base Date Month
  ,                                       !- Base Date Year
  ,                                       !- Service Date Month
  ,                                       !- Service Date Year
  ;                                       !- Length of Study Period in Years

OS:RadianceParameters,
  {0f4f0a4a-cf7c-4768-aba6-06a88c8d39a7}, !- Handle
  1,                                      !- Accumulated Rays per Record
  0,                                      !- Direct Threshold
  1,                                      !- Direct Certainty
  1,                                      !- Direct Jitter
  1,                                      !- Direct Pretest
  6,                                      !- Ambient Bounces VMX
  2,                                      !- Ambient Bounces DMX
  4050,                                   !- Ambient Divisions VMX
  512,                                    !- Ambient Divisions DMX
  256,                                    !- Ambient Supersamples
  0.001,                                  !- Limit Weight VMX
  0.001,                                  !- Limit Weight DMX
  500,                                    !- Klems Sampling Density
  146;                                    !- Sky Discretization Resolution

OS:ProgramControl,
  {df2d9b35-56a3-42b6-91a5-21f10931368e}; !- Handle

OS:OutputControl:ReportingTolerances,
  {5dd7f2a7-4e50-450a-a102-47631059aa05}; !- Handle

OS:ConvergenceLimits,
  {94b50c25-0adf-4c97-b22a-488b294415dc}, !- Handle
  1;                                      !- Minimum System Timestep {minutes}

OS:SurfaceConvectionAlgorithm:Inside,
  {b4129bc3-b70a-4cf0-a118-23c7dc50c00d}, !- Handle
  TARP;                                   !- Algorithm

OS:SurfaceConvectionAlgorithm:Outside,
  {decc8b9e-2f7d-4ad1-91ba-d8a6ef7af9a1}, !- Handle
  DOE-2;                                  !- Algorithm

OS:ZoneAirHeatBalanceAlgorithm,
  {bb3deb02-68c6-48b2-96f1-c501f15be328}, !- Handle
  ThirdOrderBackwardDifference;           !- Algorithm

OS:ZoneAirContaminantBalance,
  {06753950-e5cd-47a7-a339-9713efceed68}; !- Handle

OS:ZoneCapacitanceMultiplier:ResearchSpecial,
  {da75c098-8422-4693-a30f-f24da6449d44}, !- Handle
  ,                                       !- Temperature Capacity Multiplier
  ,                                       !- Humidity Capacity Multiplier
  ;                                       !- Carbon Dioxide Capacity Multiplier

